Version 4
SHEET 1 880 680
WIRE 256 128 80 128
WIRE 384 128 256 128
WIRE 464 128 384 128
WIRE 384 160 384 128
WIRE 80 208 80 128
WIRE 256 208 256 128
WIRE 464 304 464 128
WIRE 464 320 464 304
WIRE 256 336 256 288
WIRE 352 336 256 336
WIRE 416 336 352 336
WIRE 464 464 464 416
WIRE 80 480 80 288
WIRE 464 480 464 464
WIRE 464 480 80 480
FLAG 384 160 0
FLAG 464 304 Vs
FLAG 464 464 Vd
FLAG 352 336 Vg
SYMBOL pmos_RV1C001 416 416 M180
SYMATTR InstName U1
SYMBOL Voltage 256 192 R0
SYMATTR InstName V1
SYMATTR Value ""
SYMBOL Voltage 80 192 R0
SYMATTR InstName V2
SYMATTR Value 12
TEXT 80 -8 Left 2 !.lib rv1c001zp.lib\n.dc V2 0 12 0.1 V1 0 10 1
