Version 4
SHEET 1 880 680
WIRE 240 16 240 0
WIRE 240 16 48 16
WIRE 400 16 240 16
WIRE 48 96 48 16
WIRE 240 96 240 16
WIRE 400 272 400 16
WIRE 240 288 240 176
WIRE 288 288 240 288
WIRE 352 288 288 288
WIRE 48 432 48 176
WIRE 256 432 48 432
WIRE 400 432 400 368
WIRE 400 432 256 432
FLAG 240 0 0
FLAG 288 288 vg
FLAG 256 432 vd
SYMBOL voltage 240 80 R0
WINDOW 123 0 0 Left 0
WINDOW 39 0 0 Left 0
SYMATTR InstName V1
SYMATTR Value 0
SYMBOL voltage 48 80 R0
WINDOW 123 0 0 Left 0
WINDOW 39 0 0 Left 0
SYMATTR InstName V2
SYMATTR Value 12
SYMBOL pmos_RV1C001 352 368 M180
SYMATTR InstName U1
TEXT 32 -64 Left 2 !.lib RV1C001ZP.lib
TEXT 32 -40 Left 2 !.dc V2 0 12 0.1 V1 0 10 1
