Version 4
SHEET 1 880 680
WIRE 144 -208 -32 -208
WIRE 256 -208 144 -208
WIRE 352 -208 256 -208
WIRE 256 -192 256 -208
WIRE -32 -112 -32 -208
WIRE 144 -112 144 -208
WIRE 352 16 352 -208
WIRE 144 32 144 -32
WIRE 208 32 144 32
WIRE 304 32 208 32
WIRE -32 176 -32 -32
WIRE 128 176 -32 176
WIRE 352 176 352 112
WIRE 352 176 128 176
FLAG 256 -192 0
FLAG 208 32 vg
FLAG 128 176 vd
SYMBOL voltage 144 -128 R0
SYMATTR InstName V1
SYMBOL voltage -32 -128 R0
WINDOW 123 0 0 Left 0
WINDOW 39 0 0 Left 0
SYMATTR InstName V2
SYMATTR Value 12
SYMBOL pmos_RV1C001 304 112 M180
SYMATTR InstName U1
TEXT 64 -352 Left 2 !.lib rv1c001zp.lib
TEXT 64 -328 Left 2 !.dc V1 0 10 1 V2 0 12 0.1
