Version 4
SHEET 1 880 680
WIRE 240 -80 -96 -80
WIRE 240 32 240 -80
WIRE 176 80 32 80
WIRE -96 160 -96 -80
WIRE 32 160 32 80
WIRE -96 304 -96 240
WIRE 32 304 32 240
WIRE 32 304 -96 304
WIRE 112 304 32 304
WIRE 240 304 240 128
WIRE 240 304 112 304
WIRE 112 320 112 304
FLAG 112 320 0
SYMBOL voltage -96 144 R0
WINDOW 123 0 0 Left 0
WINDOW 39 0 0 Left 0
SYMATTR InstName V1
SYMATTR Value 1
SYMBOL npn 176 32 R0
SYMATTR InstName Q1
SYMATTR Value 2N2222
SYMBOL current 32 240 R180
WINDOW 0 24 80 Left 2
WINDOW 3 24 0 Left 2
WINDOW 123 0 0 Left 0
WINDOW 39 0 0 Left 0
SYMATTR InstName I1
SYMATTR Value 1m
TEXT -8 -240 Left 2 !.dc V1 0 10 0.1 I1 0 0.5u 0.01u
TEXT -8 -216 Left 2 !.lib 2N3055A_UdeS.lib
